* 
*              Synchronous High Speed Single Port SRAM Compiler 
* 
*                    UMC 0.18um GenericII Logic Process
*    __________________________________________________________________________
* 
* 
*      (C) Copyright 2002-2009 Faraday Technology Corp. All Rights Reserved.
*    
*    This source code is an unpublished work belongs to Faraday Technology
*    Corp.  It is considered a trade secret and is not to be divulged or
*    used by parties who have not received written authorization from
*    Faraday Technology Corp.
*    
*    Faraday's home page can be found at:
*    http://www.faraday-tech.com/
*   
*       Module Name      : SUMA180_8192X8X4BM2
*       Words            : 8192
*       Bits             : 8
*       Byte-Write       : 4
*       Aspect Ratio     : 2
*       Output Loading   : 0.01  (pf)
*       Data Slew        : 0.02  (ns)
*       CK Slew          : 0.02  (ns)
*       Power Ring Width : 2  (um)
* 
* -----------------------------------------------------------------------------
* 
*       Library          : FSA0M_A
*       Memaker          : 200901.2.1
*       Date             : 2019/01/15 02:45:39
* 
* -----------------------------------------------------------------------------

*** Top Cell SUMA180_8192X8X4BM2
*** Tue Jan 15 02:45:39 2019

*.BIPOLAR
.PARAM


.GLOBAL VCC GND 

.SUBCKT SU_PARNAND QN  A   B   LP=0.18U WP=6U LN=0.18U WN=6U
M2       QN  A   N1N38  GND N_18_MM L=LN W=WN
M3       N1N38 B   GND    GND N_18_MM L=LN W=WN
M0       VCC A   QN   VCC P_18_MM L=LP W=WP
M1       VCC B   QN   VCC P_18_MM L=LP W=WP
.ENDS

.SUBCKT SU_PARINV OUT IN  LP=0.18U WP=10U LN=0.18U WN=5U
MN       OUT IN  GND    GND N_18_MM L=LN W=WN
MP       VCC IN  OUT  VCC P_18_MM L=LP W=WP
.ENDS

.SUBCKT SU_PARNOR3 OUT A   B   C   LP=0.18U WP=6U LN=0.18U WN=3U
M0       VCC A   N1N71  VCC P_18_MM L=LP W=WP
M3       OUT B   GND    GND N_18_MM L=LN W=WN
M1       N1N71 B   N1N73  VCC P_18_MM L=LP W=WP
M4       OUT A   GND    GND N_18_MM L=LN W=WN
M5       OUT C   GND    GND N_18_MM L=LN W=WN
M2       N1N73 C   OUT  VCC P_18_MM L=LP W=WP
.ENDS

.SUBCKT SU_XDEC4 P0 P12  P4  P8 WLXDN
MP1      VCC P4  WLXDN  VCC P_18_MM L=0.18U W=0.5U
MP2      VCC P8  WLXDN  VCC P_18_MM L=0.18U W=0.5U
MP3      VCC P12 WLXDN  VCC P_18_MM L=0.18U W=0.5U
MN0      M1  P12 GND    GND N_18_MM L=0.18U W=1.0U
MN1      M2  P8  M1   GND N_18_MM L=0.18U W=1.0U
MN2      M3  P4  M2   GND N_18_MM L=0.18U W=1.0U
MN3      WLXDN P0  M3   GND N_18_MM L=0.18U W=1.0U
MP0      VCC P0  WLXDN  VCC P_18_MM L=0.18U W=0.5U
.ENDS

.SUBCKT SU_PARNOR OUT A   B   LP=0.18U WP=6U LN=0.18U WN=3U
M0       VCC A   N1N60  VCC P_18_MM L=LP W=WP
M2       OUT B   GND    GND N_18_MM L=LN W=WN
M1       N1N60 B   OUT  VCC P_18_MM L=LP W=WP
M3       OUT A   GND    GND N_18_MM L=LN W=WN
.ENDS

.SUBCKT SU_XDEC1TO2 S0  S1 WLXD0 WLXD1 WLXDN
XNOR1    WLXD1 SEL1N WLXDN SU_PARNOR  LP=0.18U WP=1.5U LN=0.18U WN=0.25U M=1
X1I159   SEL0N S0  SU_PARINV  LP=0.18U WP=0.3U LN=0.18U WN=0.3U
X1I163   SEL1N S1  SU_PARINV  LP=0.18U WP=0.3U LN=0.18U WN=0.3U
XNOR2    WLXD0 SEL0N WLXDN SU_PARNOR  LP=0.18U WP=1.5U LN=0.18U WN=0.25U M=1
.ENDS

.SUBCKT SU_PARTRANS OUT IN  S   SN  LP=0.18U WP=5U LN=0.18U WN=5U
MN       IN  S   OUT  GND N_18_MM L=LN W=WN
MP       IN  SN  OUT  VCC P_18_MM L=LP W=WP
.ENDS

.SUBCKT SU_BLMUX BL0 BL1 BL2 BL3 BL4 BL5 BL6 BL7 BLB0 BLB1 BLB2 BLB3 BLB4 BLB5  
+ BLB6 BLB7 BL_PRCH DL  DLB Y0B Y1B Y2B Y3B Y4B Y5B Y6B Y7B
XTRANS8  DL  BL4 YS4I YS4B SU_PARTRANS  LP=0.18U WP=2.0U LN=0.18U WN=4.0U
XTRANS9  DLB BLB4 YS4I YS4B SU_PARTRANS  LP=0.18U WP=2.0U LN=0.18U WN=4.0U
XTRANS11 DLB BLB5 YS5I YS5B SU_PARTRANS  LP=0.18U WP=2.0U LN=0.18U WN=4.0U
XTRANS12 DL  BL6 YS6I YS6B SU_PARTRANS  LP=0.18U WP=2.0U LN=0.18U WN=4.0U
XTRANS13 DLB BLB6 YS6I YS6B SU_PARTRANS  LP=0.18U WP=2.0U LN=0.18U WN=4.0U
XTRANS14 DL  BL7 YS7I YS7B SU_PARTRANS  LP=0.18U WP=2.0U LN=0.18U WN=4.0U
XTRANS15 DLB BLB7 YS7I YS7B SU_PARTRANS  LP=0.18U WP=2.0U LN=0.18U WN=4.0U
XTRANS10 DL  BL5 YS5I YS5B SU_PARTRANS  LP=0.18U WP=2.0U LN=0.18U WN=4.0U
MPUP0B   VCC BL_PRCH BLB0  VCC P_18_MM L=0.18U W=6.0U
MPUP0    VCC BL_PRCH BL0  VCC P_18_MM L=0.18U W=6.0U
MPEQ0    BL0 BL_PRCH BLB0  VCC P_18_MM L=0.18U W=3.0U
MPUP1    VCC BL_PRCH BL1  VCC P_18_MM L=0.18U W=6.0U
MPUP1B   VCC BL_PRCH BLB1  VCC P_18_MM L=0.18U W=6.0U
MPEQ1    BL1 BL_PRCH BLB1  VCC P_18_MM L=0.18U W=3.0U
MPUP2    VCC BL_PRCH BL2  VCC P_18_MM L=0.18U W=6.0U
MPUP2B   VCC BL_PRCH BLB2  VCC P_18_MM L=0.18U W=6.0U
MPEQ2    BL2 BL_PRCH BLB2  VCC P_18_MM L=0.18U W=3.0U
MPUP3    VCC BL_PRCH BL3  VCC P_18_MM L=0.18U W=6.0U
MPUP3B   VCC BL_PRCH BLB3  VCC P_18_MM L=0.18U W=6.0U
MPEQ3    BL3 BL_PRCH BLB3  VCC P_18_MM L=0.18U W=3.0U
MPUP4    VCC BL_PRCH BL4  VCC P_18_MM L=0.18U W=6.0U
MPUP4B   VCC BL_PRCH BLB4  VCC P_18_MM L=0.18U W=6.0U
MPEQ4    BL4 BL_PRCH BLB4  VCC P_18_MM L=0.18U W=3.0U
MPUP5    VCC BL_PRCH BL5  VCC P_18_MM L=0.18U W=6.0U
MPUP5B   VCC BL_PRCH BLB5  VCC P_18_MM L=0.18U W=6.0U
MPEQ5    BL5 BL_PRCH BLB5  VCC P_18_MM L=0.18U W=3.0U
MPUP6    VCC BL_PRCH BL6  VCC P_18_MM L=0.18U W=6.0U
MPUP6B   VCC BL_PRCH BLB6  VCC P_18_MM L=0.18U W=6.0U
MPEQ6    BL6 BL_PRCH BLB6  VCC P_18_MM L=0.18U W=3.0U
MPUP7    VCC BL_PRCH BL7  VCC P_18_MM L=0.18U W=6.0U
MPUP7B   VCC BL_PRCH BLB7  VCC P_18_MM L=0.18U W=6.0U
MPEQ7    BL7 BL_PRCH BLB7  VCC P_18_MM L=0.18U W=3.0U
MPSUP0   VCC GND   BL0  VCC P_18_MM L=0.6U W=0.24U
MPSUP0B  VCC GND   BLB0  VCC P_18_MM L=0.6U W=0.24U
MPSUP1   VCC GND   BL1  VCC P_18_MM L=0.6U W=0.24U
MPSUP1B  VCC GND   BLB1  VCC P_18_MM L=0.6U W=0.24U
MPSUP2   VCC GND   BL2  VCC P_18_MM L=0.6U W=0.24U
MPSUP2B  VCC GND   BLB2  VCC P_18_MM L=0.6U W=0.24U
MPSUP3   VCC GND   BL3  VCC P_18_MM L=0.6U W=0.24U
MPSUP3B  VCC GND   BLB3  VCC P_18_MM L=0.6U W=0.24U
MPSUP4   VCC GND   BL4  VCC P_18_MM L=0.6U W=0.24U
MPSUP4B  VCC GND   BLB4  VCC P_18_MM L=0.6U W=0.24U
MPSUP5   VCC GND   BL5  VCC P_18_MM L=0.6U W=0.24U
MPSUP5B  VCC GND   BLB5  VCC P_18_MM L=0.6U W=0.24U
MPSUP6   VCC GND   BL6  VCC P_18_MM L=0.6U W=0.24U
MPSUP6B  VCC GND   BLB6  VCC P_18_MM L=0.6U W=0.24U
MPSUP7   VCC GND   BL7  VCC P_18_MM L=0.6U W=0.24U
MPSUP7B  VCC GND   BLB7  VCC P_18_MM L=0.6U W=0.24U
M1I2096  VCC BL_PRCH DL   VCC P_18_MM L=0.18U W=3.0U
M1I2097  VCC BL_PRCH DLB  VCC P_18_MM L=0.18U W=3.0U
MPC0     DL  BL_PRCH DLB  VCC P_18_MM L=0.18U W=1.5U
X1I2612  YS0B YS0I SU_PARINV  LP=0.18U WP=1.4U LN=0.18U WN=0.7U
X1I2613  YS0I Y0B SU_PARINV  LP=0.18U WP=0.7U LN=0.18U WN=0.35U
X1I2617  YS1I Y1B SU_PARINV  LP=0.18U WP=0.7U LN=0.18U WN=0.35U
X1I2619  YS1B YS1I SU_PARINV  LP=0.18U WP=1.4U LN=0.18U WN=0.7U
X1I2622  YS2B YS2I SU_PARINV  LP=0.18U WP=1.4U LN=0.18U WN=0.7U
X1I2624  YS2I Y2B SU_PARINV  LP=0.18U WP=0.7U LN=0.18U WN=0.35U
X1I2625  YS3I Y3B SU_PARINV  LP=0.18U WP=0.7U LN=0.18U WN=0.35U
X1I2627  YS3B YS3I SU_PARINV  LP=0.18U WP=1.4U LN=0.18U WN=0.7U
X1I2630  YS4B YS4I SU_PARINV  LP=0.18U WP=1.4U LN=0.18U WN=0.7U
X1I2632  YS4I Y4B SU_PARINV  LP=0.18U WP=0.7U LN=0.18U WN=0.35U
X1I2633  YS5I Y5B SU_PARINV  LP=0.18U WP=0.7U LN=0.18U WN=0.35U
X1I2635  YS5B YS5I SU_PARINV  LP=0.18U WP=1.4U LN=0.18U WN=0.7U
X1I2642  YS6B YS6I SU_PARINV  LP=0.18U WP=1.4U LN=0.18U WN=0.7U
X1I2644  YS6I Y6B SU_PARINV  LP=0.18U WP=0.7U LN=0.18U WN=0.35U
X1I2645  YS7I Y7B SU_PARINV  LP=0.18U WP=0.7U LN=0.18U WN=0.35U
X1I2647  YS7B YS7I SU_PARINV  LP=0.18U WP=1.4U LN=0.18U WN=0.7U
XTRANS0  DL  BL0 YS0I YS0B SU_PARTRANS  LP=0.18U WP=2.0U LN=0.18U WN=4.0U
XTRANS1  DLB BLB0 YS0I YS0B SU_PARTRANS  LP=0.18U WP=2.0U LN=0.18U WN=4.0U
XTRANS2  DL  BL1 YS1I YS1B SU_PARTRANS  LP=0.18U WP=2.0U LN=0.18U WN=4.0U
XTRANS3  DLB BLB1 YS1I YS1B SU_PARTRANS  LP=0.18U WP=2.0U LN=0.18U WN=4.0U
XTRANS4  DL  BL2 YS2I YS2B SU_PARTRANS  LP=0.18U WP=2.0U LN=0.18U WN=4.0U
XTRANS5  DLB BLB2 YS2I YS2B SU_PARTRANS  LP=0.18U WP=2.0U LN=0.18U WN=4.0U
XTRANS6  DL  BL3 YS3I YS3B SU_PARTRANS  LP=0.18U WP=2.0U LN=0.18U WN=4.0U
XTRANS7  DLB BLB3 YS3I YS3B SU_PARTRANS  LP=0.18U WP=2.0U LN=0.18U WN=4.0U
.ENDS

.SUBCKT SU_PARNAND3 Z   A   B   C   LP=0.18U WP=6U LN=0.18U WN=6U
M0       VCC A   Z    VCC P_18_MM L=LP W=WP
M3       Z   A   N1N38  GND N_18_MM L=LN W=WN
M1       VCC B   Z    VCC P_18_MM L=LP W=WP
M4       N1N38 B   N1N51  GND N_18_MM L=LN W=WN
M2       VCC C   Z    VCC P_18_MM L=LP W=WP
M5       N1N51 C   GND    GND N_18_MM L=LN W=WN
.ENDS

.SUBCKT SU_DLHWEB D   Q   QR  IP  IPB CSI
XTRANS1  DINB QB  IPB IP  SU_PARTRANS  LP=0.18U WP=2.0U LN=0.18U WN=1.2U
X1I550   N1N552 QB  SU_PARINV  LP=0.18U WP=6.0U LN=0.18U WN=3.0U
X1I551   QB  N1N552 SU_PARINV  LP=0.3U WP=0.3U LN=0.6U WN=0.3U
X1I595   Q   N1N552 SU_PARINV  LP=0.18U WP=25U LN=0.18U WN=12U
X1I598   Q   QRB IP  IPB SU_PARTRANS  LP=0.18U WP=2.0U LN=0.18U WN=1.2U
X1I604   QRB N1N607 SU_PARINV  LP=0.3U WP=0.3U LN=0.6U WN=0.3U
X1I605   QR  N1N607 SU_PARINV  LP=0.18U WP=20.0U LN=0.18U WN=10.0U
X1I606   N1N607 QRB SU_PARINV  LP=0.18U WP=6.0U LN=0.18U WN=3.0U
X1I629   D2  D1  SU_PARINV  LP=0.18U WP=0.6U LN=0.18U WN=0.3U
X1I631   N1N636 N1N622 SU_PARINV  LP=0.18U WP=1.2U LN=0.18U WN=0.6U
X1I632   D1  D   SU_PARINV  LP=0.18U WP=0.6U LN=0.18U WN=0.3U
X1I633   N1N623 D2 VCC  SU_PARNAND  LP=0.18U WP=0.6U LN=0.18U WN=0.6U M=1
X1I634   N1N622 N1N623 SU_PARINV  LP=0.18U WP=0.8U LN=0.18U WN=0.4U
X1I635   DINB N1N636 SU_PARINV  LP=0.18U WP=2.0U LN=0.18U WN=1.0U
.ENDS

.SUBCKT SU_IO_BW BL_PRCH CSI DI  DL  DLB DO  IOE RT  WEB WEBQ WEBQR ZSB1 ZSB2
X1I1917  WIPB WIP SU_PARINV  LP=0.18U WP=1.2U LN=0.18U WN=0.44U
X1I1983  DII AN2I SU_PARINV  LP=0.18U WP=3.0U LN=0.18U WN=3.0U
X1I1985  AN2I AN2 WIP WIPB SU_PARTRANS  LP=0.18U WP=1.5U LN=0.18U WN=1.0U
X1I1986  DIBDL DIB WIPB WIP SU_PARTRANS  LP=0.18U WP=2.0U LN=0.18U WN=1.0U
M1I1987  DLB DIIDLB GND    GND N_18_MM L=0.18U W=10U
M1I1990  DIIDLB WIP GND    GND N_18_MM L=0.18U W=0.6U
X1I1991  WTH DII SU_PARINV  LP=0.3U WP=0.44U LN=0.6U WN=0.44U
X1I1992  DIB DII SU_PARINV  LP=0.18U WP=4.0U LN=0.18U WN=1.5U
M1I1993  DIBDL WIP GND    GND N_18_MM L=0.18U W=0.6U
X1I1994  AN2 AN1 SU_PARINV  LP=0.18U WP=5.6U LN=0.18U WN=2.8U
M1I1998  DL  DIBDL GND    GND N_18_MM L=0.18U W=10U
MSAP1    DLL1 DLLB1 VCC  VCC P_18_MM L=0.18U W=3.0U
X1I2011  OEBI OEI SU_PARINV  LP=0.18U WP=1.0U LN=0.18U WN=0.44U
M1I2012  DOBP OEI VCC  VCC P_18_MM L=0.18U W=1U
M1I2013  DOBN OEBI GND    GND N_18_MM L=0.18U W=0.5U
MSAP2    DLLB1 DLL1 VCC  VCC P_18_MM L=0.18U W=3.0U
MSAN1    DLL1 DLLB1 P3   GND N_18_MM L=0.4U W=6.0U
M1I2027  DOBI ST1 GND    GND N_18_MM L=0.18U W=3.0U
M1I2028  N1N1975 ST1 DOBI  VCC P_18_MM L=0.18U W=2.0U
X1I2030  OEI IOEB SU_PARINV  LP=0.18U WP=1.0U LN=0.18U WN=0.4U
MSAN2    DLLB1 DLL1 P3   GND N_18_MM L=0.4U W=6.0U
MSAN5    P3  ENSAI GND    GND N_18_MM L=0.18U W=4.0U
M1I2045  VCC N1N2116 N1N1975  VCC P_18_MM L=0.18U W=2.0U
X1I2046  N1N2116 DOBI SU_PARINV  LP=0.18U WP=0.8U LN=0.18U WN=0.44U
M1I2047  VCC ST3 DOBI  VCC P_18_MM L=0.18U W=8.0U
M1I2048  DOBI ST3 N1N1973  GND N_18_MM L=0.18U W=0.8U
M1I2049  N1N1973 N1N2116 GND    GND N_18_MM L=0.18U W=0.8U
X1I2050  ST3 ST2 SU_PARINV  LP=0.18U WP=1.5U LN=0.18U WN=2.0U
M1I2056  DO  DOBN GND    GND N_18_MM L=0.18U W=5U
X1I2061  DOBP DOBI OEI OEBI SU_PARTRANS  LP=0.18U WP=1.5U LN=0.18U WN=2.0U
X1I2062  DOBN DOBI OEI OEBI SU_PARTRANS  LP=0.18U WP=2.0U LN=0.18U WN=1.0U
M1I2063  DO  DOBP VCC  VCC P_18_MM L=0.18U W=12U
X1I2067  IOEB IOE N1N2369 SU_PARNAND  LP=0.18U WP=0.44U LN=0.18U WN=0.24U M=1
X1I2081  DIIDLB DII WIPB WIP SU_PARTRANS  LP=0.18U WP=2.0U LN=0.18U WN=1.0U
X1I2122  WTH AN2I WIPB WIP SU_PARTRANS  LP=0.18U WP=0.44U LN=0.18U WN=0.44U
X1I2178  RTB RT  SU_PARINV  LP=0.18U WP=0.94U LN=0.18U WN=0.44U
X1I2334  N1N2781 DI  SU_PARINV  LP=0.18U WP=1.0U LN=0.18U WN=0.5U
X1I2358  N1N2597 N1N2782 SU_PARINV  LP=0.5U WP=0.4U LN=0.5U WN=0.24U
X1I2368  N1N2369 ZSB2 SU_PARINV  LP=0.18U WP=0.24U LN=0.18U WN=0.24U
X1I2447  IWE WEBQ SU_PARINV  LP=0.18U WP=0.5U LN=0.18U WN=0.25U
X1I2476  ZSRT ZSB1 N1N2767 SU_PARNOR  LP=0.18U WP=0.5U LN=0.18U WN=0.25U M=1
X1I2561  DSI N1N2595 SU_PARINV  LP=0.18U WP=0.5U LN=0.18U WN=0.25U
X1I2587  AN0 CSI DSI SU_PARNAND  LP=0.18U WP=0.5U LN=0.18U WN=0.5U M=1
X1I2589  AN1 AN0 SU_PARINV  LP=0.18U WP=1.0U LN=0.18U WN=0.5U
X1I2594  N1N2595 N1N2597 SU_PARINV  LP=0.5U WP=0.4U LN=0.5U WN=0.24U
X1I2599  BL_PRCH RTCH1 SU_PARINV  LP=0.18U WP=30U LN=0.18U WN=22.5U
X1I2615  SAN1 SANP ZSRT SU_PARNAND  LP=0.18U WP=2U LN=0.18U WN=4U M=1
X1I2619  RTD RT4 SU_PARINV  LP=0.18U WP=0.44U LN=0.18U WN=0.44U
X1I2623  SANP SANNP SU_PARINV  LP=0.18U WP=1.0U LN=0.18U WN=0.5U
X1I2629  RTCH0 RCH RT SU_PARNAND  LP=0.18U WP=4U LN=0.18U WN=2U M=1
X1I2654  ST2 DLL1 WTHDI SU_PARNAND  LP=0.18U WP=1.8U LN=0.18U WN=1.0U M=1
X1I2664  ST1 DLLB1 WTHDIB SU_PARNAND  LP=0.18U WP=1.8U LN=0.18U WN=1.0U M=1
X1I2681  ENSAI SAN1 SU_PARINV  LP=0.18U WP=3U LN=0.18U WN=1.5U
X1I2687  WIP ZSRT2 RTB IWE SU_PARNAND3  LP=0.18U WP=2U LN=0.18U WN=4U M=1
X1I2690  SANNP RTD RTI SU_PARNAND  LP=0.18U WP=1U LN=0.18U WN=2U M=1
X1I2694  RT4 RT3 SU_PARINV  LP=0.3U WP=0.44U LN=0.3U WN=0.44U
X1I2699  RT3 RT2 SU_PARINV  LP=0.3U WP=0.44U LN=0.3U WN=0.44U
X1I2700  RT2 RT1 SU_PARINV  LP=0.3U WP=0.44U LN=0.3U WN=0.44U
X1I2708  RTI RTB SU_PARINV  LP=0.18U WP=0.62U LN=0.18U WN=0.44U
X1I2709  RT1 RTI SU_PARINV  LP=0.18U WP=0.44U LN=0.18U WN=0.44U
X1I2714  RCH RCHB SU_PARINV  LP=0.3U WP=0.44U LN=0.3U WN=0.44U
X1I2717  RCHB N1N2723 SU_PARINV  LP=0.3U WP=0.44U LN=0.3U WN=0.44U
X1I2744  ZSRT2 ZSB1 SU_PARINV  LP=0.18U WP=1.0U LN=0.18U WN=0.5U
X1I2764  N1N2767 WEBQR SU_PARINV  LP=0.18U WP=0.5U LN=0.18U WN=0.25U
X1I2769  N1N2723 RTB WCH SU_PARNAND  LP=0.18U WP=0.44U LN=0.18U WN=0.44U M=1
X1I2770  WCH IWE SU_PARINV  LP=0.18U WP=0.44U LN=0.18U WN=0.44U
X1I2775  RTCH1 RTCH0 SU_PARINV  LP=0.18U WP=10U LN=0.18U WN=7.5U
X1I2783  N1N2782 N1N2780 SU_PARINV  LP=0.5U WP=0.4U LN=0.5U WN=0.24U
X1I2790  N1N2780 N1N2781 SU_PARINV  LP=0.36U WP=0.4U LN=0.36U WN=0.24U
M1I2811  DL  ENSAI DLL1  VCC P_18_MM L=0.18U W=4.0U
M1I2812  DLLB1 ENSAI DLB  VCC P_18_MM L=0.18U W=4.0U
M1I2816  DLLB1 VCC DLL1  VCC P_18_MM L=0.18U W=4.0U
M1I2822  DLL1 VCC DLLB1  VCC P_18_MM L=0.18U W=3.0U
M1I2867  DLL1 GND DLLB1  GND N_18_MM L=0.4U W=6.0U
X1I2850  WTHDI DIB WIPB SU_PARNAND  LP=0.18U WP=1.5U LN=0.18U WN=1.5U M=1
X1I2851  WTHDIB DII WIPB SU_PARNAND  LP=0.18U WP=1.5U LN=0.18U WN=1.5U M=1
X1I2873  WEB WEBQ WEBQR RTB RT  CSI SU_DLHWEB
.ENDS

.SUBCKT SU_DIDO_BW BL0 BL1 BL2 BL3 BL4 BL5 BL6 BL7 BLB0 BLB1 BLB2 BLB3 BLB4  
+ BLB5 BLB6 BLB7 CSI DI  DO  IOE RT  WEB WEBQ WEBQR Y0B Y1B Y2B Y3B Y4B Y5B Y6B 
+  Y7B  ZSB1 ZSB2
XBLMUX   BL0 BL1 BL2 BL3 BL4 BL5 BL6 BL7 BLB0 BLB1 BLB2 BLB3 BLB4 BLB5 BLB6  
+ BLB7 BL_PRCH DL  DLB Y0B Y1B Y2B Y3B Y4B Y5B Y6B Y7B SU_BLMUX
XIO      BL_PRCH CSI DI  DL  DLB DO  IOE RT  WEB WEBQ WEBQR ZSB1 ZSB2 SU_IO_BW
.ENDS

.SUBCKT SU_PREDC1 A0  CSB  IP  IPB   S0  S1  
X1I1683  A0B A0 CSB  SU_PARNOR  LP=0.18U WP=1.2U LN=0.18U WN=0.3U M=1
X1I1859  N1N1958 A0I SU_PARINV  LP=0.18U WP=0.5U LN=0.18U WN=0.25U
X1I1860  A0I A0B SU_PARINV  LP=0.18U WP=0.5U LN=0.18U WN=0.25U
XTRANS1  S1I P1B IPB IP  SU_PARTRANS  LP=0.18U WP=2.0U LN=0.18U WN=2.0U
XINVF1   P1I P1B SU_PARINV  LP=0.18U WP=5.0U LN=0.18U WN=2.5U
XINVR1   P1B P1I SU_PARINV  LP=0.3U WP=0.3U LN=0.6U WN=0.3U
X1I1928  S1B P1I IP0 SU_PARNAND  LP=0.18U WP=15.0U LN=0.18U WN=15.0U M=1
X1I1929  S0B P0I IP0 SU_PARNAND  LP=0.18U WP=15.0U LN=0.18U WN=15.0U M=1
X1I1935  S1  S1B SU_PARINV  LP=0.18U WP=40.0U LN=0.18U WN=20.0U
X1I1936  S0  S0B SU_PARINV  LP=0.18U WP=40.0U LN=0.18U WN=20.0U
X1I1940  IP0 IPB SU_PARINV  LP=0.18U WP=5.0U LN=0.18U WN=2.5U
X1I1948  S1I A1I SU_PARINV  LP=0.18U WP=6.0U LN=0.18U WN=3.0U
X1I1957  A1I N1N1958 SU_PARINV  LP=0.18U WP=2.0U LN=0.18U WN=1.0U
M1I1966  GND   VCC GND    GND N_18_MM L=3U W=10U

XINVF0   P0I P1I SU_PARINV  LP=0.18U WP=5.0U LN=0.18U WN=2.5U
.ENDS

.SUBCKT SU_PRED24 A0  A1  CSB  IP  IPB   S0  S1  S2  S3
M1I2120  GND VCC GND GND N_18_MM L=3U W=15U
X1I2130  S0B P0I IP0 SU_PARNAND  LP=0.18U WP=15.0U LN=0.18U WN=15.0U M=1
X1I2131  S1B P1I IP0 SU_PARNAND  LP=0.18U WP=15.0U LN=0.18U WN=15.0U M=1
X1I2132  S3B P3I IP0 SU_PARNAND  LP=0.18U WP=15.0U LN=0.18U WN=15.0U M=1
X1I2133  P3B A0I A1I SU_PARNAND  LP=0.18U WP=5.0U LN=0.18U WN=5.0U M=1
X1I2134  P0B A0B A1B SU_PARNAND  LP=0.18U WP=5.0U LN=0.18U WN=5.0U M=1
X1I2135  P1B A0I A1B SU_PARNAND  LP=0.18U WP=5.0U LN=0.18U WN=5.0U M=1
X1I2136  P2B A0B A1I SU_PARNAND  LP=0.18U WP=5.0U LN=0.18U WN=5.0U M=1
X1I2139  A1N N1N2138 SU_PARINV  LP=0.18U WP=3.0U LN=0.18U WN=1.5U
X1I2140  N1N2138 N1N2236 SU_PARINV  LP=0.18U WP=1.0U LN=0.18U WN=0.5U
X1I2143  N1N2236 CSB A1  SU_PARNOR  LP=0.18U WP=1.2U LN=0.18U WN=0.3U M=1
X1I2144  N1N2242 N1N2235 SU_PARINV  LP=0.18U WP=1.0U LN=0.18U WN=0.5U
X1I2145  A0N N1N2242 SU_PARINV  LP=0.18U WP=3.0U LN=0.18U WN=1.5U
X1I2149  S2B P2I IP0 SU_PARNAND  LP=0.18U WP=15.0U LN=0.18U WN=15.0U M=1
X1I2150  S2  S2B SU_PARINV  LP=0.18U WP=40.0U LN=0.18U WN=20.0U
X1I2151  S0  S0B SU_PARINV  LP=0.18U WP=40.0U LN=0.18U WN=20.0U
X1I2152  S1  S1B SU_PARINV  LP=0.18U WP=40.0U LN=0.18U WN=20.0U
X1I2153  S3  S3B SU_PARINV  LP=0.18U WP=40.0U LN=0.18U WN=20.0U
X1I2169  N1N2235 CSB A0  SU_PARNOR  LP=0.18U WP=1.2U LN=0.18U WN=0.3U M=1
X1I2308  A0N A0B IPB IP  SU_PARTRANS  LP=0.18U WP=2.0U LN=0.18U WN=2.0U
X1I2311  A1N A1B IPB IP  SU_PARTRANS  LP=0.18U WP=2.0U LN=0.18U WN=2.0U
X1I2320  IP0 IPB SU_PARINV  LP=0.18U WP=10.0U LN=0.18U WN=5.0U
X1I2352  A0I A0B SU_PARINV  LP=0.18U WP=5.0U LN=0.18U WN=2.5U
X1I2353  A0B A0I SU_PARINV  LP=0.3U WP=0.3U LN=0.6U WN=0.3U
X1I2354  A1B A1I SU_PARINV  LP=0.3U WP=0.3U LN=0.6U WN=0.3U
X1I2356  A1I A1B SU_PARINV  LP=0.18U WP=5.0U LN=0.18U WN=2.5U
X1I2368  P1I P1B SU_PARINV  LP=0.18U WP=5.0U LN=0.18U WN=2.5U
X1I2369  P3I P3B SU_PARINV  LP=0.18U WP=5.0U LN=0.18U WN=2.5U
X1I2370  P0I P0B SU_PARINV  LP=0.18U WP=5.0U LN=0.18U WN=2.5U
X1I2380  P2I P2B SU_PARINV  LP=0.18U WP=5.0U LN=0.18U WN=2.5U

.ENDS

.SUBCKT SU_CELL BL  BLB WL 
M0       N0  N1  VCC  VCC P_L400_G2 L=0.2U W=0.175U AD=0.08P AS=0.17P PD=0.77U  
+ PS=1.78U
M2       N0  N1  GND    GND N_PD400_G2 L=0.188U W=0.3U AD=0.10P AS=0.13P PD=1.13U  
+ PS=1.25U
M3       N1  N0  GND    GND N_PD400_G2 L=0.188U W=0.3U AD=0.10P AS=0.13P PD=1.13U  
+ PS=1.25U
M1       N1  N0  VCC  VCC P_L400_G2 L=0.2U W=0.175U AD=0.08P AS=0.17P PD=0.77U  
+ PS=1.78U
M4       BL  WL  N0   GND N_PG400_G2 L=0.2275U W=0.24U AD=0.08P AS=0.10P PD=0.83U  
+ PS=1.13U
M5       N1  WL  BLB  GND N_PG400_G2 L=0.2275U W=0.24U AD=0.08P AS=0.10P PD=0.83U  
+ PS=1.13U
.IC V(N0)=0
.ENDS

.SUBCKT SU_DCELL BL  BLB WL 
M2       GND  GND  GND    GND N_PD400_G2 L=0.188U W=0.3U AD=0.10P AS=0.13P PD=1.13U  
+ PS=1.25U
M3       GND  GND  GND    GND N_PD400_G2 L=0.188U W=0.3U AD=0.10P AS=0.13P PD=1.13U  
+ PS=1.25U
M4       BL  WL  GND   GND N_PG400_G2 L=0.2275U W=0.24U AD=0.08P AS=0.10P PD=0.83U  
+ PS=1.13U
M5       GND  WL  BLB  GND N_PG400_G2 L=0.2275U W=0.24U AD=0.08P AS=0.10P PD=0.83U  
+ PS=1.13U
.ENDS

.SUBCKT SU_DCELL2X8 BL0 BL1 BL2 BL3 BL4 BL5 BL6 BL7 BLB0 BLB1 BLB2 BLB3 BLB4  
+ BLB5 BLB6 BLB7
X1I387   BL0 BLB0 GND   SU_DCELL
X1I388   BL1 BLB1 GND   SU_DCELL
X1I389   BL2 BLB2 GND   SU_DCELL
X1I390   BL3 BLB3 GND   SU_DCELL
X1I391   BL4 BLB4 GND   SU_DCELL
X1I393   BL5 BLB5 GND   SU_DCELL
X1I394   BL6 BLB6 GND   SU_DCELL
X1I395   BL7 BLB7 GND   SU_DCELL
.ENDS

.SUBCKT SU_CELL2X8 BL0 BL1 BL2 BL3 BL4 BL5 BL6 BL7 BLB0 BLB1 BLB2 BLB3 BLB4  
+ BLB5 BLB6 BLB7 WL0 WL1
XCELL00  BL0 BLB0 WL0 SU_CELL
XCELL01  BL1 BLB1 WL0 SU_CELL
XCELL02  BL2 BLB2 WL0 SU_CELL
XCELL03  BL3 BLB3 WL0 SU_CELL
XCELL04  BL4 BLB4 WL0 SU_CELL
XCELL05  BL5 BLB5 WL0 SU_CELL
XCELL06  BL6 BLB6 WL0 SU_CELL
XCELL07  BL7 BLB7 WL0 SU_CELL
XCELL17  BL7 BLB7 WL1 SU_CELL
XCELL16  BL6 BLB6 WL1 SU_CELL
XCELL15  BL5 BLB5 WL1 SU_CELL
XCELL14  BL4 BLB4 WL1 SU_CELL
XCELL12  BL2 BLB2 WL1 SU_CELL
XCELL11  BL1 BLB1 WL1 SU_CELL
XCELL13  BL3 BLB3 WL1 SU_CELL
XCELL10  BL0 BLB0 WL1 SU_CELL
.ENDS

.SUBCKT SU_SIGNAL_DV ATDCK DBL IP  IPB RT
MPIPUP   SIP ATDCK VCC  VCC P_18_MM L=0.18U W=30U
MPSIPB   N1N1274 SIPB VCC  VCC P_18_MM L=0.18U W=2.0U
M1I1250  SIP PUDN GND    GND N_18_MM L=0.18U W=15U
MNSIPB   N1N1276 SIPB GND    GND N_18_MM L=0.18U W=1.0U
MPSHOOT  SIP PUDN N1N1274  VCC P_18_MM L=0.18U W=2.0U
MNCKDB   SIP ATDCK N1N1276  GND N_18_MM L=0.18U W=1.0U
X1I1568  IPB N1N2158 SU_PARINV  LP=0.18U WP=30U LN=0.18U WN=15U
X1I1643  RT  SIP SU_PARINV  LP=0.18U WP=60U LN=0.18U WN=30U
X1I1779  IP  IPB SU_PARINV  LP=0.18U WP=20U LN=0.18U WN=10U
X1I1958  SIPB SIP SU_PARINV  LP=0.18U WP=3.0U LN=0.18U WN=1.5U
X1I2138  PUDN N1N2171 SU_PARINV  LP=0.18U WP=10U LN=0.18U WN=5U
X1I2149  RTI SIP SU_PARINV  LP=0.18U WP=0.5U LN=0.18U WN=3U
X1I2150  N1N2158 RTI SU_PARINV  LP=0.18U WP=10U LN=0.18U WN=1U
X1I2169  N1N2171 N1N2173 SU_PARINV  LP=0.18U WP=5U LN=0.18U WN=2U
X1I2170  N1N2173 DBL SU_PARINV  LP=0.18U WP=2U LN=0.18U WN=1U
.IC V(SIP)=0
.ENDS

.SUBCKT SU_YDEC CSB IP  IPB Y0  Y0B Y1  Y1B Y2  Y2B Y3B Y4B Y5B Y6B Y7B
X1I1909  T4B T4  SU_PARINV  LP=0.3U WP=0.3U LN=0.6U WN=0.3U
X1I1910  T5B T5  SU_PARINV  LP=0.3U WP=0.3U LN=0.6U WN=0.3U
X1I1911  T7B T7  SU_PARINV  LP=0.3U WP=0.3U LN=0.6U WN=0.3U
X1I1912  T3B T3  SU_PARINV  LP=0.3U WP=0.3U LN=0.6U WN=0.3U
X1I1913  T4  T4B SU_PARINV  LP=0.18U WP=6U LN=0.18U WN=3U
X1I1914  T3  T3B SU_PARINV  LP=0.18U WP=6U LN=0.18U WN=3U
X1I1915  T1B T1  SU_PARINV  LP=0.3U WP=0.3U LN=0.6U WN=0.3U
X1I1916  T2  T2B SU_PARINV  LP=0.18U WP=6U LN=0.18U WN=3U
X1I1917  T0  T0B SU_PARINV  LP=0.18U WP=6U LN=0.18U WN=3U
X1I1918  T0B T0  SU_PARINV  LP=0.3U WP=0.3U LN=0.6U WN=0.3U
X1I1919  T1  T1B SU_PARINV  LP=0.18U WP=6U LN=0.18U WN=3U
X1I1922  T2B T2  SU_PARINV  LP=0.3U WP=0.3U LN=0.6U WN=0.3U
X1I1923  S1B T1B IPB IP  SU_PARTRANS  LP=0.18U WP=2.0U LN=0.18U WN=2.0U
X1I1926  S2B T2B IPB IP  SU_PARTRANS  LP=0.18U WP=2.0U LN=0.18U WN=2.0U
X1I1937  T6B T6  SU_PARINV  LP=0.3U WP=0.3U LN=0.6U WN=0.3U
X1I1938  T5  T5B SU_PARINV  LP=0.18U WP=6U LN=0.18U WN=3U
X1I1939  T6  T6B SU_PARINV  LP=0.18U WP=6U LN=0.18U WN=3U
X1I1940  T7  T7B SU_PARINV  LP=0.18U WP=6U LN=0.18U WN=3U
X1I1941  S6B T6B IPB IP  SU_PARTRANS  LP=0.18U WP=2.0U LN=0.18U WN=2.0U
X1I1942  S7B T7B IPB IP  SU_PARTRANS  LP=0.18U WP=2.0U LN=0.18U WN=2.0U
X1I1943  S5B T5B IPB IP  SU_PARTRANS  LP=0.18U WP=2.0U LN=0.18U WN=2.0U
X1I1944  S4B T4B IPB IP  SU_PARTRANS  LP=0.18U WP=2.0U LN=0.18U WN=2.0U
X1I1945  A1B A1I SU_PARINV  LP=0.18U WP=4.0U LN=0.18U WN=2.0U
X1I1957  A2I A2BCS SU_PARINV  LP=0.18U WP=3.0U LN=0.18U WN=1.5U
X1I1958  A1I A1BCS SU_PARINV  LP=0.18U WP=3.0U LN=0.18U WN=1.5U
X1I1959  A1BCS Y1 CSB  SU_PARNOR  LP=0.18U WP=2.0U LN=0.18U WN=0.6U M=1
X1I1980  S5B A2I A1B A0I SU_PARNAND3  LP=0.18U WP=4.0U LN=0.18U WN=6.0U M=1
X1I1990  S1B A2B A1B A0I SU_PARNAND3  LP=0.18U WP=4.0U LN=0.18U WN=6.0U M=1
X1I1997  S3B A2B A1I A0I SU_PARNAND3  LP=0.18U WP=4.0U LN=0.18U WN=6.0U M=1
X1I1999  S4B A2I A1B A0B SU_PARNAND3  LP=0.18U WP=4.0U LN=0.18U WN=6.0U M=1
X1I2001  S6B A2I A1I A0B SU_PARNAND3  LP=0.18U WP=4.0U LN=0.18U WN=6.0U M=1
X1I2006  S2B A2B A1I A0B SU_PARNAND3  LP=0.18U WP=4.0U LN=0.18U WN=6.0U M=1
X1I2007  S7B A2I A1I A0I SU_PARNAND3  LP=0.18U WP=4.0U LN=0.18U WN=6.0U M=1
X1I2011  A2BCS Y2 CSB  SU_PARNOR  LP=0.18U WP=2.0U LN=0.18U WN=0.6U M=1
X1I2012  A2B A2I SU_PARINV  LP=0.18U WP=4.0U LN=0.18U WN=2.0U
X1I2016  A0BCS Y0 CSB  SU_PARNOR  LP=0.18U WP=2.0U LN=0.18U WN=0.6U M=1
X1I2017  A0I A0BCS SU_PARINV  LP=0.18U WP=3.0U LN=0.18U WN=1.5U
X1I2018  A0B A0I SU_PARINV  LP=0.18U WP=4.0U LN=0.18U WN=2.0U
X1I2019  S0B A2B A1B A0B SU_PARNAND3  LP=0.18U WP=4.0U LN=0.18U WN=6.0U M=1
X1I2025  S0B T0B IPB IP  SU_PARTRANS  LP=0.18U WP=2.0U LN=0.18U WN=2.0U
X1I2026  S3B T3B IPB IP  SU_PARTRANS  LP=0.18U WP=2.0U LN=0.18U WN=2.0U
X1I2041  Y0B T0  SU_PARINV  LP=0.18U WP=30U LN=0.18U WN=15U
X1I2045  Y1B T1  SU_PARINV  LP=0.18U WP=30U LN=0.18U WN=15U
X1I2047  Y2B T2  SU_PARINV  LP=0.18U WP=30U LN=0.18U WN=15U
X1I2049  Y3B T3  SU_PARINV  LP=0.18U WP=30U LN=0.18U WN=15U
X1I2051  Y4B T4  SU_PARINV  LP=0.18U WP=30U LN=0.18U WN=15U
X1I2053  Y5B T5  SU_PARINV  LP=0.18U WP=30U LN=0.18U WN=15U
X1I2055  Y6B T6  SU_PARINV  LP=0.18U WP=30U LN=0.18U WN=15U
X1I2057  Y7B T7  SU_PARINV  LP=0.18U WP=30U LN=0.18U WN=15U
.ENDS

.SUBCKT SU_DLHCS D   Q1  Q2  IP  IPB CSB
X1I549   DINB Q1B IPB IP  SU_PARTRANS  LP=0.18U WP=2.0U LN=0.18U WN=2.0U
X1I550   N1N628 Q1B SU_PARINV  LP=0.18U WP=12.0U LN=0.18U WN=6.0U
XNORCSB  D1  N1N623 CSB SU_PARNOR  LP=0.18U WP=1.2U LN=0.18U WN=0.3U M=1
X1I575   DINB D2  SU_PARINV  LP=0.18U WP=6U LN=0.18U WN=3U
X1I600   N1N632 Q2B SU_PARINV  LP=0.18U WP=2.0U LN=0.18U WN=1.0U
X1I601   Q1  Q2B IP  IPB SU_PARTRANS  LP=0.18U WP=2U LN=0.18U WN=2U
X1I603   Q2B N1N632 SU_PARINV  LP=0.3U WP=0.3U LN=0.6U WN=0.3U
X1I618   Q1B N1N628 SU_PARINV  LP=0.3U WP=0.3U LN=0.6U WN=0.3U
X1I622   N1N623 D   SU_PARINV  LP=0.18U WP=0.4U LN=0.18U WN=0.24U
X1I627   Q1  N1N628 SU_PARINV  LP=0.18U WP=50U LN=0.18U WN=25U
X1I631   Q2  N1N632 SU_PARINV  LP=0.18U WP=20U LN=0.18U WN=10U
X1I636   D2  D1  SU_PARINV  LP=0.18U WP=1.0U LN=0.18U WN=0.5U
.ENDS

.SUBCKT SU_ATDCK ATDCK CK  CSB
MPUP     VCC GND   ATDCK  VCC P_18_MM L=0.25U W=0.24U
XINVCKD2 CKDL2 CKDL1 SU_PARINV  LP=0.30U WP=1.4U LN=0.30U WN=0.70U
XINVCKD1 CKDL1 CK  SU_PARINV  LP=0.30U WP=0.7U LN=0.30U WN=0.35U
XINVCSR  CSN CSIN SU_PARINV  LP=0.25U WP=0.48U LN=0.25U WN=0.24U
XINVCSF  CSIN CSN SU_PARINV  LP=0.18U WP=2.0U LN=0.18U WN=1.0U
XTRANCS  CSN CSBIN CKDL1 CK  SU_PARTRANS  LP=0.18U WP=4.0U LN=0.18U WN=2.0U
MNDN1    ATDCK CK  N1N23  GND N_18_MM L=0.18U W=15.0U
MNDN0    N1N23 CKCSB GND    GND N_18_MM L=0.18U W=15.0U
MPUP1    VCC CKCSB ATDCK  VCC P_18_MM L=0.18U W=6.0U
MPUP2    N1N385 CK  ATDCK  VCC P_18_MM L=0.18U W=2.0U
MPUP3    VCC CKCSI N1N385  VCC P_18_MM L=0.18U W=2.0U
XINV3    CKCSI CKCSB SU_PARINV  LP=0.18U WP=0.48U LN=0.18U WN=0.24U
XNOR1    CKCSB CSIN CKDL2 SU_PARNOR  LP=0.18U WP=3.0U LN=0.18U WN=1.5U M=1
XINV2    CSBIN CSB SU_PARINV  LP=0.18U WP=8.0U LN=0.18U WN=4.0U
XINVCKD4 CKDL4 CKDL3 SU_PARINV  LP=0.30U WP=0.70U LN=0.30U WN=0.70U
XINVCKD3 CKDL3 GND   SU_PARINV  LP=0.30U WP=0.35U LN=0.30U WN=0.35U
.ENDS

.SUBCKT SU_CNTRL_DV_BW CK  CS  CSB CSI DBL IOE IP  IPB OE  RT  Y0   
+ Y0B Y1  Y1B Y2  Y2B Y3B Y4B Y5B Y6B Y7B Z0  Z0Q_1 Z0Q_2 Z1  Z1Q_1 Z1Q_2 Z2   
+ Z2Q_1 Z2Q_2 Z3  Z3Q_1 Z3Q_2
XSIGNAL  ATDCK DBL IP  IPB RT  SU_SIGNAL_DV
XYDEC    CSB IP  IPB Y0  Y0B Y1  Y1B Y2  Y2B Y3B Y4B Y5B Y6B Y7B SU_YDEC
X1I1620  N1N1614 OE  SU_PARINV  LP=0.18U WP=8.0U LN=0.18U WN=4U
X1I1623  CSB CS  SU_PARINV  LP=0.18U WP=40.0U LN=0.18U WN=20.U
X1I1624  CSI CSB SU_PARINV  LP=0.18U WP=30U LN=0.18U WN=20U
X1I1625  IOE N1N1614 SU_PARINV  LP=0.18U WP=30U LN=0.18U WN=15U
XDLHCS3  Z3  Z3Q_1 Z3Q_2 IP  IPB CSB SU_DLHCS
XDLHCS2  Z2  Z2Q_1 Z2Q_2 IP  IPB CSB SU_DLHCS
XDLHCS1  Z1  Z1Q_1 Z1Q_2 IP  IPB CSB SU_DLHCS
XDLHCS0  Z0  Z0Q_1 Z0Q_2 IP  IPB CSB SU_DLHCS
XATDCK   ATDCK CK  CSB SU_ATDCK
.ENDS

.SUBCKT SU_WLDRV WL0 WL1 WLXD0 WLXD1
X1I101   WL0 WL0D3 SU_PARINV  LP=0.18U WP=30U LN=0.18U WN=15U
X1I102   WL1 WL1D3 SU_PARINV  LP=0.18U WP=30U LN=0.18U WN=15U
X1I108   WL0D3 WL0D2 SU_PARINV  LP=0.18U WP=10.0U LN=0.18U WN=5.0U
X1I112   WL1D3 WL1D2 SU_PARINV  LP=0.18U WP=10.0U LN=0.18U WN=5.0U
X1I125   WL0D2 WL0D1 SU_PARINV  LP=0.18U WP=3.0U LN=0.18U WN=1.5U
X1I126   WL1D2 WL1D1 SU_PARINV  LP=0.18U WP=3.0U LN=0.18U WN=1.5U
X1I160   WL1D1 WLXD1 SU_PARINV  LP=0.18U WP=1.0U LN=0.18U WN=0.5U
X1I166   WL0D1 WLXD0 SU_PARINV  LP=0.18U WP=1.0U LN=0.18U WN=0.5U
.ENDS

.SUBCKT SU_DVMUX DL0 DL10 DL2 DL4 DL6 DL8 DLOUT DVS0 DVS1 DVS2 DVS3 DVS4 DVS5
X1I116   DLOUT DL2 DVS1 N1N118 SU_PARTRANS  LP=0.18U WP=1.2U LN=0.18U WN=1.2U
X1I119   N1N118 DVS1 SU_PARINV  LP=0.18U WP=1.0U LN=0.18U WN=0.5U
X1I121   N1N122 DVS0 SU_PARINV  LP=0.18U WP=1.0U LN=0.18U WN=0.5U
X1I124   DLOUT DL0 DVS0 N1N122 SU_PARTRANS  LP=0.18U WP=1.2U LN=0.18U WN=1.2U
X1I66    DLOUT DL10 DVS5 N1N67 SU_PARTRANS  LP=0.18U WP=1.2U LN=0.18U WN=1.2U
X1I80    DLOUT DL8 DVS4 N1N93 SU_PARTRANS  LP=0.18U WP=1.2U LN=0.18U WN=1.2U
X1I81    DLOUT DL6 DVS3 N1N95 SU_PARTRANS  LP=0.18U WP=1.2U LN=0.18U WN=1.2U
X1I82    DLOUT DL4 DVS2 N1N97 SU_PARTRANS  LP=0.18U WP=1.2U LN=0.18U WN=1.2U
X1I84    N1N67 DVS5 SU_PARINV  LP=0.18U WP=1.0U LN=0.18U WN=0.5U
X1I85    N1N93 DVS4 SU_PARINV  LP=0.18U WP=1.0U LN=0.18U WN=0.5U
X1I86    N1N95 DVS3 SU_PARINV  LP=0.18U WP=1.0U LN=0.18U WN=0.5U
X1I87    N1N97 DVS2 SU_PARINV  LP=0.18U WP=1.0U LN=0.18U WN=0.5U
.ENDS

.SUBCKT SU_PULLDL DL10 DL4 DL6 DL8 PULL_DN
X1I1835  DL8 N1N1842 SU_PARINV  LP=0.4U WP=1.4U LN=0.4U WN=0.7U
X1I1836  N1N1842 DL6 SU_PARINV  LP=0.4U WP=0.7U LN=0.4U WN=0.35U
X1I1839  DL10 N1N1846 SU_PARINV  LP=0.4U WP=1.4U LN=0.4U WN=0.7U
X1I1840  N1N1846 DL8 SU_PARINV  LP=0.4U WP=0.7U LN=0.4U WN=0.35U
X1I1848  N1N1919 N1N1851 SU_PARINV  LP=0.4U WP=1.4U LN=0.4U WN=0.7U
X1I1849  N1N1851 DL10 SU_PARINV  LP=0.4U WP=0.7U LN=0.4U WN=0.35U
X1I1872  DL4 N1N1874 SU_PARINV  LP=0.18U WP=1.4U LN=0.18U WN=0.7U
X1I1873  N1N1874 PULL_DN SU_PARINV  LP=0.18U WP=0.7U LN=0.18U WN=0.35U
X1I1888  N1N1890 DL4 SU_PARINV  LP=0.4U WP=0.7U LN=0.4U WN=0.35U
X1I1889  DL6 N1N1890 SU_PARINV  LP=0.4U WP=1.4U LN=0.4U WN=0.7U
.ENDS

.SUBCKT SU_DUMWLDRV S0  S1  DVS0 DVS1 DVS2 DVS3 DVS4 DVS5 DBL
X1I102   N1N192 WL1D3 SU_PARINV  LP=0.18U WP=3.0U LN=0.18U WN=1.5U
X1I112   WL1D3 WL1D2 SU_PARINV  LP=0.18U WP=2.0U LN=0.18U WN=1.0U
X1I126   WL1D2 WL1D1 SU_PARINV  LP=0.18U WP=1.0U LN=0.18U WN=0.5U
X1I159   WL1D1 WLEN SU_PARINV  LP=0.18U WP=0.50U LN=0.18U WN=0.25U
X1I179   DBL2 DBLB1 SU_PARINV  LP=0.18U WP=3.0U LN=0.18U WN=1.5U
X1I185   DBLB DBL2 DBL1 SU_PARNOR  LP=0.18U WP=7.0U LN=0.18U WN=8.0U M=1
X1I186   N1N212 N1N175 WL1D3 N1N174 N1N173 N1N172 DLOUT DVS0 DVS1 DVS2 DVS3  
+ DVS4 DVS5 SU_DVMUX
X1I187   DBLB1 DLOUT SU_PARINV  LP=0.18U WP=1.0U LN=0.18U WN=0.5U
X1I189   DBL1 N1N192 SU_PARINV  LP=0.18U WP=4.0U LN=0.18U WN=2.0U
XPULLDL  N1N175 N1N174 N1N173 N1N172 DBL1 SU_PULLDL
X1I206   DBL DBLB WLEN1 SU_PARNAND  LP=0.18U WP=8U LN=0.18U WN=8U M=1
X1I211   WLEN N1N212 SU_PARINV  LP=0.18U WP=2.0U LN=0.18U WN=1.0U
X1I219   N1N221 WLEN SU_PARINV  LP=0.18U WP=3.0U LN=0.18U WN=1.5U
X1I220   WLEN1 N1N221 SU_PARINV  LP=0.18U WP=6.0U LN=0.18U WN=3.0U
X1I261   N1N212 S0 S1 SU_PARNOR  LP=0.18U WP=2.0U LN=0.18U WN=1.0U M=1
X1I273   N1N275 N1N212 SU_PARINV  LP=0.6U WP=0.7U LN=0.6U WN=0.35U
X1I274   N1N281 N1N275 SU_PARINV  LP=0.6U WP=0.7U LN=0.6U WN=0.35U
.ENDS
